C10H16N2O3S
NCtclcactv08242613033D 0   0.00000     0.00000
 
 32 33  0  0  0  0  0  0  0  0999 V2000
    0.2041   -0.1120   -0.6420 C   0  0  0  0  0  0  0  0  0  0  0  0
    1.4648    0.7249   -0.4158 C   0  0  0  0  0  0  0  0  0  0  0  0
    2.6683   -0.2033   -0.2401 C   0  0  0  0  0  0  0  0  0  0  0  0
    3.9290    0.6335   -0.0139 C   0  0  0  0  0  0  0  0  0  0  0  0
   -1.4533   -1.9840   -0.8112 H   0  0  0  0  0  0  0  0  0  0  0  0
   -4.7852   -0.4674    0.9247 H   0  0  0  0  0  0  0  0  0  0  0  0
   -3.3197   -2.5854    0.8600 O   0  0  0  0  0  0  0  0  0  0  0  0
    4.9662   -1.4787    0.1070 O   0  0  0  0  0  0  0  0  0  0  0  0
   -3.2264    1.8296    0.3420 C   0  0  0  0  0  0  0  0  0  0  0  0
    6.3351    0.2359    0.3714 O   0  0  0  0  0  0  0  0  0  0  0  0
    5.1145   -0.2807    0.1592 C   0  0  0  0  0  0  0  0  0  0  0  0
   -0.9995    0.8162   -0.8178 C   0  0  0  0  0  0  0  0  0  0  0  0
   -3.1665   -1.5468    0.2467 C   0  0  0  0  0  0  0  0  0  0  0  0
    7.0645   -0.3901    0.4764 H   0  0  0  0  0  0  0  0  0  0  0  0
   -2.2644    0.0096   -1.1713 C   0  0  0  0  0  0  0  0  0  0  0  0
   -3.5257    0.5836   -0.5144 C   0  0  0  0  0  0  0  0  0  0  0  0
   -2.1509   -1.3429   -0.6034 N   0  0  0  0  0  0  0  0  0  0  0  0
   -3.9982   -0.5022    0.3588 N   0  0  0  0  0  0  0  0  0  0  0  0
   -1.4548    1.6031    0.7810 S   0  0  0  0  0  0  0  0  0  0  0  0
   -2.3908   -0.0390   -2.2529 H   0  0  0  0  0  0  0  0  0  0  0  0
   -4.2732    0.8175   -1.2725 H   0  0  0  0  0  0  0  0  0  0  0  0
   -0.7983    1.5719   -1.5770 H   0  0  0  0  0  0  0  0  0  0  0  0
   -3.3670    2.7409   -0.2393 H   0  0  0  0  0  0  0  0  0  0  0  0
   -3.8479    1.8414    1.2374 H   0  0  0  0  0  0  0  0  0  0  0  0
    0.3277   -0.7203   -1.5381 H   0  0  0  0  0  0  0  0  0  0  0  0
    0.0397   -0.7612    0.2180 H   0  0  0  0  0  0  0  0  0  0  0  0
    1.6291    1.3740   -1.2758 H   0  0  0  0  0  0  0  0  0  0  0  0
    1.3412    1.3331    0.4802 H   0  0  0  0  0  0  0  0  0  0  0  0
    2.5040   -0.8525    0.6199 H   0  0  0  0  0  0  0  0  0  0  0  0
    2.7919   -0.8116   -1.1361 H   0  0  0  0  0  0  0  0  0  0  0  0
    4.0934    1.2827   -0.8739 H   0  0  0  0  0  0  0  0  0  0  0  0
    3.8054    1.2418    0.8822 H   0  0  0  0  0  0  0  0  0  0  0  0
 15 16  1  0  0  0  0
 12 15  1  0  0  0  0
 15 17  1  0  0  0  0
 16 18  1  0  0  0  0
  9 16  1  0  0  0  0
 12 19  1  0  0  0  0
  1 12  1  0  0  0  0
 13 17  1  0  0  0  0
  1  2  1  0  0  0  0
  7 13  2  0  0  0  0
  2  3  1  0  0  0  0
  3  4  1  0  0  0  0
  4 11  1  0  0  0  0
 10 11  1  0  0  0  0
  8 11  2  0  0  0  0
 13 18  1  0  0  0  0
  9 19  1  0  0  0  0
 15 20  1  0  0  0  0
 16 21  1  0  0  0  0
 12 22  1  0  0  0  0
  5 17  1  0  0  0  0
  6 18  1  0  0  0  0
  9 23  1  0  0  0  0
  9 24  1  0  0  0  0
  1 25  1  0  0  0  0
  1 26  1  0  0  0  0
  2 27  1  0  0  0  0
  2 28  1  0  0  0  0
  3 29  1  0  0  0  0
  3 30  1  0  0  0  0
  4 31  1  0  0  0  0
  4 32  1  0  0  0  0
 10 14  1  0  0  0  0
M  END
$$$$
